; Filename: norfolk.inp
; WNTR: 0.3.1
; Created: 2022-08-16 15:47:46
[TITLE]

[JUNCTIONS]
;ID                      Elevation       Demand Pattern                 
 220727504               12.900262467    17.443849306                            ;
 220764946               17.647637795    7.7436736113                            ;
 220819764               17.431102362    7.7436736113                            ;
 220858606               12.020997375    17.020425001                            ;
 221032564               12.477034121    13.358152084                            ;
 221032583               7.7099737533    13.358152084                            ;
 221032601               16.135170604    17.715331251                            ;
 221032606               13.530183727    17.715331251                            ;
 221032621               13.854986877    10.352156945                            ;
 221032624               13.188976378    10.352156945                            ;
 221032629                12.80511811    10.352156945                            ;
 221032634               11.433727034    10.352156945                            ;
 221032638               13.070866142    10.352156945                            ;
 221032665               12.956036745    16.092552778                            ;
 221032671               13.202099738    16.092552778                            ;
 221032675               13.264435696    16.092552778                            ;
 221032686               14.452099738    16.092552778                            ;
 221032690               12.129265092    16.092552778                            ;
 221032694                13.11351706    16.092552778                            ;
 221032706               13.582677165    10.352156945                            ;
 221032716               15.531496063    21.168859723                            ;
 221032732               15.685695538    21.168859723                            ;
 221032778               14.005905512    21.168859723                            ;
 221032844               15.748031496    21.168859723                            ;
 221032856               15.902230971    21.168859723                            ;
 221032867               15.213254593    24.490302779                            ;
 221032884               13.038057743    20.013138195                            ;
 221032897               17.759186352    20.013138195                            ;
 221032900               13.093832021    20.013138195                            ;
 221032916               14.580052493    20.013138195                            ;
 221032920               13.940288714    20.013138195                            ;
 221032939               19.648950131    20.013138195                            ;
 221032951               11.190944882    14.134561112                            ;
 221032956               12.007874016    14.134561112                            ;
 221032968               9.9573490814    4.3112208335                            ;
 221032979               7.7526246719    4.3112208335                            ;
 221032989               5.9186351706    4.3112208335                            ;
 221032992               6.5879265092    4.3112208335                            ;
 221033003               14.520997375    4.3112208335                            ;
 221033007               13.356299213    4.3112208335                            ;
 221033016               15.961286089    4.3112208335                            ;
 221033027               13.707349081    7.7436736113                            ;
 221033046               17.224409449    7.7436736113                            ;
 221033053               15.042650919    7.7436736113                            ;
 221033066               15.964566929    10.714767361                            ;
 221033070                14.37335958    18.124106945                            ;
 221033090               13.891076115    18.867045139                            ;
 221033094               12.129265092    14.724907639                            ;
 221033124               13.592519685    13.193267362                            ;
 221033160               13.556430446    13.504484723                            ;
 221033175               9.0059055118    13.504484723                            ;
 221033195               4.3963254593    13.504484723                            ;
 221033219               11.282808399    9.0220937503                            ;
 221033236               13.346456693    13.504484723                            ;
 221033265               7.1391076115    7.8328270836                            ;
 221033273               8.7598425197    7.8328270836                            ;
 221033281               9.6751968504    7.8328270836                            ;
 221033289               9.3175853018    7.8328270836                            ;
 221033323               9.1994750656    7.8328270836                            ;
 221033327               11.391076115       14.848125                            ;
 221033361               11.755249344    7.1935513891                            ;
 221033365               11.122047244    7.1935513891                            ;
 221033378               13.900918635    7.1935513891                            ;
 221033386               12.312992126    7.1935513891                            ;
 221033404               14.005905512    10.159283334                            ;
 221033416               10.528215223    10.159283334                            ;
 221033422               12.706692913    17.141748612                            ;
 221033426               13.169291339    17.141748612                            ;
 221033428               13.080708661    17.141748612                            ;
 221033432               7.8937007874    2.9462673612                            ;
 221033437               14.868766404    11.246639584                            ;
 221033438                14.36023622    11.246639584                            ;
 221033443               12.972440945    11.246639584                            ;
 221033450               12.864173228    11.246639584                            ;
 221033454               12.713254593    11.246639584                            ;
 221033465               14.022309711    11.246639584                            ;
 221033478               14.005905512    11.246639584                            ;
 221033482               12.355643045    16.090306945                            ;
 221033491               12.129265092    16.090306945                            ;
 221033496               10.295275591    16.090306945                            ;
 221033500               12.447506562    16.090306945                            ;
 221033506               13.241469816    16.090306945                            ;
 221033510               14.045275591    10.814786111                            ;
 221033513               14.770341207    10.814786111                            ;
 221033520               14.753937008    10.814786111                            ;
 221033529               13.540026247    10.814786111                            ;
 221033533               14.629265092    10.814786111                            ;
 221033541               13.779527559    18.226166667                            ;
 221033563               13.146325459    18.226166667                            ;
 221033579               22.877296588    64.479166669                            ;
 221033715               17.624671916       11.039925                            ;
 221033744               15.059055118       11.039925                            ;
 221033774                12.18832021       11.039925                            ;
 221033804               14.406167979       11.039925                            ;
 221033844               14.173228346       11.039925                            ;
 221033852               13.205380577    13.358152084                            ;
 221033870               10.682414698    13.358152084                            ;
 221033876               13.323490814    14.238956945                            ;
 221033893               13.868110236    14.238956945                            ;
 221033929               10.990813648    15.782552084                            ;
 221033940               12.293307087    15.782552084                            ;
 221033960               11.968503937    15.782552084                            ;
 221033981               16.794619423    13.791170834                            ;
 221034007               16.597769029    15.742234723                            ;
 221034015               19.127296588    15.742234723                            ;
 221034024               14.222440945    15.742234723                            ;
 221034032               14.642388451    15.742234723                            ;
 221034040               15.593832021    13.301690973                            ;
 221034106               13.320209974    13.301690973                            ;
 221034155               12.627952756    14.738004862                            ;
 221034178               7.5688976378    12.810165973                            ;
 221034201               7.6607611549    12.810165973                            ;
 221034209               11.811023622    12.810165973                            ;
 221034238               10.246062992    12.810165973                            ;
 221034256               24.803149606     7.394877778                            ;
 221034259               24.215879265     7.394877778                            ;
 221034262               20.564304462     7.394877778                            ;
 221034266               21.820866142     7.394877778                            ;
 221034270               21.538713911     7.394877778                            ;
 221034292               19.652230971     7.394877778                            ;
 221034351               11.725721785    16.740421528                            ;
 221034359               11.768372703    13.504484723                            ;
 221034378               4.8228346457    13.504484723                            ;
 221034400               11.660104987    15.742234723                            ;
 221034444               10.597112861    15.461870834                            ;
 221034449               13.293963255    15.461870834                            ;
 221034453                13.12664042    15.461870834                            ;
 221034457               12.660761155    18.557771528                            ;
 221034470               12.408136483    15.461870834                            ;
 221034482               11.896325459    15.461870834                            ;
 221034485               12.378608924    15.461870834                            ;
 221034494               10.436351706    15.461870834                            ;
 221034498               11.345144357    15.461870834                            ;
 221034501               11.994750656    15.461870834                            ;
 221034502               11.440288714    18.557771528                            ;
 221034508               10.967847769    18.557771528                            ;
 221034550               13.011811024       11.039925                            ;
 221034897               13.969816273    48.341820835                            ;
 221034984               12.578740157    5.0788916668                            ;
 221034992               13.625328084    5.0788916668                            ;
 221035066               32.234251969    64.479166669                            ;
 221035137               27.956036745    64.479166669                            ;
 221035149               8.2775590551    4.3112208335                            ;
 221035152               8.5892388451    4.3112208335                            ;
 221035225               12.355643045    4.9744895835                            ;
 221035247               13.287401575    4.9744895835                            ;
 221035258               9.4520997375    4.9744895835                            ;
 221035262               8.5662729659    4.9744895835                            ;
 221035271               7.9166666667    8.5671138892                            ;
 221035277                10.00328084    8.5671138892                            ;
 221035283               10.869422572    8.5671138892                            ;
 221035290               12.388451444    8.5671138892                            ;
 221036129               15.098425197       15.206675                            ;
 221036213               10.055774278    7.6104222225                            ;
 221036216               10.232939633    7.6104222225                            ;
 221036223               11.692913386    12.891934028                            ;
 221036231               12.020997375    12.891934028                            ;
 221036764               14.629265092    9.5395833336                            ;
 221036784               14.491469816    9.5395833336                            ;
 221036863               10.442913386    33.846393057                            ;
 221036865               10.465879265    33.846393057                            ;
 221036887               9.0124671916    33.846393057                            ;
 221037510               12.027559055    7.6104222225                            ;
 221037805               19.865485564    15.723511806                            ;
 221037828                12.82152231    9.8047069447                            ;
 221037944               12.378608924    7.6104222225                            ;
 221038211               14.452099738    18.952420834                            ;
 221038242               15.351049869    4.3112208335                            ;
 221038279               7.8969816273    2.9462673612                            ;
 221038368               7.6771653543    2.9462673612                            ;
 221038473                      11.25    33.846393057                            ;
 221038480               12.349081365    7.6104222225                            ;
 221038549               10.419947507    19.755436112                            ;
 221038799               15.836614173    15.827125695                            ;
 221038803               15.511811024    21.920247223                            ;
 221039474               12.759186352    18.207415973                            ;
 221039732               13.881233596    9.4745965281                            ;
 221039736               10.518372703    4.9744895835                            ;
 221039925               13.809055118    8.5671138892                            ;
 221039971               14.094488189    8.5671138892                            ;
 221039982               9.2355643045    4.9744895835                            ;
 221040007               12.683727034    4.9744895835                            ;
 221040159               16.085958005    4.3112208335                            ;
 221040165               13.992782152    4.3112208335                            ;
 221040176               14.416010499    4.3112208335                            ;
 221040180               14.537401575    4.3112208335                            ;
 221040275                12.81824147    13.783061806                            ;
 221040278               12.037401575    13.783061806                            ;
 221040287               14.284776903    7.6104222225                            ;
 221040384               11.522309711    8.2696062503                            ;
 221040511               13.326771654    7.6104222225                            ;
 221040532               14.557086614    7.6104222225                            ;
 221040544               13.185695538    7.6104222225                            ;
 221040548               13.569553806    14.238956945                            ;
 221040610               11.660104987    15.726779167                            ;
 221040738               20.272309711    16.490640278                            ;
 221040766               16.102362205    16.490640278                            ;
 221040837               16.971784777    15.206511806                            ;
 221040846               17.860892388    15.206511806                            ;
 221040909               11.952099738    16.740421528                            ;
 221041043               17.244094488    64.479166669                            ;
 221041323               16.148293963    13.358152084                            ;
 221041327                16.56824147    16.490640278                            ;
 221041354               15.892388451    16.490640278                            ;
 221041392               8.9927821522    4.3112208335                            ;
 221041396               7.1916010499    4.3112208335                            ;
 221041465               19.704724409    64.479166669                            ;
 221041800               13.001968504    11.884328473                            ;
 221041802               14.914698163    11.884328473                            ;
 221041807                17.81496063    11.884328473                            ;
 221041851               14.025590551    11.884328473                            ;
 221041885               17.575459318    16.186342362                            ;
 221041901               21.289370079    16.186342362                            ;
 221041917               13.389107612    16.186342362                            ;
 221041967               10.052493438    16.015277778                            ;
 221042009               12.529527559    16.015277778                            ;
 221042253               17.099737533    15.726779167                            ;
 221042274               18.208661417    15.726779167                            ;
 221042326               16.328740157    15.384639584                            ;
 221042331               17.125984252    15.384639584                            ;
 221042347               16.404199475    15.384639584                            ;
 221042359               16.771653543    15.384639584                            ;
 221042433               8.3366141732    4.3112208335                            ;
 221042535               14.727690289    17.925570139                            ;
 221042614               10.813648294    33.846393057                            ;
 221042763                10.00656168    12.223140973                            ;
 221042771               11.745406824    12.223140973                            ;
 221042855               14.484908136       15.206675                            ;
 221042858               13.799212598       15.206675                            ;
 221043078               11.282808399    7.6104222225                            ;
 221043082               11.689632546    7.6104222225                            ;
 221043178               15.961286089    19.185763889                            ;
 221043181               16.371391076    19.185763889                            ;
 221043331                14.37992126    14.658286806                            ;
 221043342               6.2696850394    8.2696062503                            ;
 221043367               8.2874015748    5.0788916668                            ;
 221043376                15.94816273    17.715331251                            ;
 221043412               13.202099738    17.436210417                            ;
 221043441               15.075459318    11.890431945                            ;
 221043445                14.68832021    13.746152084                            ;
 221043594               15.836614173    15.384639584                            ;
 221043597               15.856299213     7.394877778                            ;
 221043639               16.040026247    9.4006944447                            ;
 221043699               16.092519685    15.384639584                            ;
 221043704               16.345144357     7.394877778                            ;
 221043727                11.56496063    9.4010673614                            ;
 221043731               7.0144356955    9.4010673614                            ;
 221043866               16.968503937    15.726779167                            ;
 221043895                18.44160105    15.726779167                            ;
 221043907               17.769028871    15.726779167                            ;
 221043917               17.595144357    15.726779167                            ;
 221043921               17.562335958    15.726779167                            ;
 221043928                18.44160105    16.490640278                            ;
 221043953               19.209317585    16.490640278                            ;
 221044166               15.905511811    19.493351389                            ;
 221044169               15.843175853    19.493351389                            ;
 221044250                6.499343832    7.6104222225                            ;
 221044276               10.764435696    7.6104222225                            ;
 221044407                9.625984252    2.9462673612                            ;
 221044414               14.557086614    8.5744444447                            ;
 221044416               14.117454068    8.5744444447                            ;
 221044418               12.427821522    8.5744444447                            ;
 221044426               10.524934383    7.6104222225                            ;
 221044451               14.350393701    16.740421528                            ;
 221044497               11.902887139    15.206511806                            ;
 221044659               7.3293963255    7.6104222225                            ;
 221044711               13.963254593    20.197348612                            ;
 221044737                15.31496063    20.197348612                            ;
 221044746               15.390419948    20.197348612                            ;
 221044761               12.736220472    19.755436112                            ;
 221044782               10.849737533    19.755436112                            ;
 221044792               17.388451444     7.394877778                            ;
 221044851                18.12335958     7.394877778                            ;
 221044863               13.546587927    8.5744444447                            ;
 221044869               13.884514436    8.5744444447                            ;
 221044880               10.787401575    5.0788916668                            ;
 221044908               9.7736220472    5.0788916668                            ;
 221044977               9.8818897638    16.015277778                            ;
 221045151               13.015091864    11.884328473                            ;
 221045343               14.858923885    4.9744895835                            ;
 221045349               11.702755906    4.9744895835                            ;
 221045358               16.171259843    9.4006944447                            ;
 221045385               13.300524934    16.457964584                            ;
 221045477                 15.6332021    20.197348612                            ;
 221045501               13.845144357    20.197348612                            ;
 221045888               8.0511811024    5.0788916668                            ;
 221045891               10.036089239    5.0788916668                            ;
 221045896               13.877952756    8.5744444447                            ;
 221045908               13.838582677    8.5744444447                            ;
 221045935               13.969816273    18.340666667                            ;
 221046038               10.479002625    16.028594445                            ;
 221046055               11.476377953    16.028594445                            ;
 221046121               11.587926509    22.128005556                            ;
 221046126               12.516404199    22.128005556                            ;
 221046133               13.710629921    10.811155556                            ;
 221046245               16.646981627    9.4006944447                            ;
 221046328               11.768372703    33.846393057                            ;
 221046335               17.362204724    16.490640278                            ;
 221046445               11.896325459    4.9744895835                            ;
 221046449               11.988188976    7.3179222224                            ;
 221046760               15.377296588    11.890431945                            ;
 221046811               14.301181102    8.5744444447                            ;
 221046814                13.43503937    8.5744444447                            ;
 221047218               16.309055118    33.846393057                            ;
 221047277               8.9796587927    8.7785013892                            ;
 221047286               9.5439632546    8.7785013892                            ;
 221047384               11.374671916    33.846393057                            ;
 221047470               15.606955381    20.197348612                            ;
 221047604               10.777559055    7.3179222224                            ;
 221047607               10.278871391    7.3179222224                            ;
 221047614               9.4455380577    7.3179222224                            ;
 221047629               7.2604986877    4.9744895835                            ;
 221047829               16.266404199    16.490640278                            ;
 221047876               13.310367454    16.490640278                            ;
 221047929               13.881233596    16.490640278                            ;
 221048062               16.837270341    16.490640278                            ;
 221048066               17.093175853    16.490640278                            ;
 221048166                17.19488189    64.479166669                            ;
 221048181               16.171259843    20.197348612                            ;
 221048216               15.088582677    20.197348612                            ;
 221048276               12.408136483    12.919884723                            ;
 221048291               11.961942257    12.919884723                            ;
 221048304               10.875984252    12.919884723                            ;
 221048370               14.750656168    13.301690973                            ;
 221048487               10.068897638    2.9462673612                            ;
 221048498               12.073490814    11.884328473                            ;
 221048653               16.043307087    64.479166669                            ;
 221048713               10.357611549    4.9744895835                            ;
 221048857                14.05511811    9.4745965281                            ;
 221048914                11.56496063    10.811155556                            ;
 221048996               15.715223097    10.811155556                            ;
 221049079               9.6489501312    4.9744895835                            ;
 221049108               8.2020997375    4.9744895835                            ;
 221049110               10.459317585    4.9744895835                            ;
 221049119               17.362204724    20.931118751                            ;
 221049125               19.294619423    20.931118751                            ;
 221049232               12.585301837    12.919884723                            ;
 221049471               12.273622047    8.5744444447                            ;
 221049524               11.538713911    8.5744444447                            ;
 221049540                11.87992126    16.028594445                            ;
 221049849               7.6377952756    9.6853576392                            ;
 221049968               7.3490813648      13.9799125                            ;
 221050291               13.851706037    8.5744444447                            ;
 221050296               13.969816273    8.5744444447                            ;
 221050372               8.8976377953    33.846393057                            ;
 221050413               10.242782152    33.846393057                            ;
 221050560               13.874671916    9.4745965281                            ;
 221050563               13.356299213    14.934444445                            ;
 221050568               12.664041995    14.934444445                            ;
 221050573               12.116141732    14.934444445                            ;
 221050900               11.233595801    22.128005556                            ;
 221050910               11.332020997    22.128005556                            ;
 221050982                         20    64.479166669                            ;
 221051059                15.94160105    9.0220937503                            ;
 221051128               10.557742782    2.9462673612                            ;
 221051132               10.659448819    2.9462673612                            ;
 221051147               14.760498688    14.134561112                            ;
 221051199               15.446194226    13.791170834                            ;
 221051203               15.882545932       15.206675                            ;