; Filename: sanjuan_valve.inp
; WNTR: 0.3.1
; Created: 2022-08-16 16:21:07
[TITLE]

[JUNCTIONS]
;ID                      Elevation       Demand Pattern                 
 114574410               18.211942257               0                            ;
 199493385                15.00328084               0                            ;
 217592045               37.719816273               0                            ;
 221393553               39.160104987               0                            ;
 221407126               23.585958005               0                            ;
 221408671               38.011811024               0                            ;
 238067216               39.448818898               0                            ;
 238067218               36.387795276               0                            ;
 238078826               16.374671916               0                            ;
 238276110                250.7316273               0                            ;
 238288601               141.23687664               0                            ;
 238299352                160.6003937               0                            ;
 238323132                193.8484252               0                            ;
 238324829               112.71325459               0                            ;
 238339155               140.38057743               0                            ;
 238356424               254.35367454               0                            ;
 238899615               219.95734908               0                            ;
 238899639               39.045275591               0                            ;
 238899644                39.06824147               0                            ;
 238899650                          0               0                            ;
 238899651                          0               0                            ;
 238899653                          0               0                            ;
 238899668               79.632545932               0                            ;
 238899673               81.912729659               0                            ;
 238899684               95.196850394               0                            ;
 238899693                103.7664042               0                            ;
 238899700               109.06824147               0                            ;
 238899704               116.43372703               0                            ;
 238899712               123.94356955               0                            ;
 238899716               141.93569554               0                            ;
 238899726               58.717191601               0                            ;
 238899733               58.776246719               0                            ;
 238899735               58.959973753               0                            ;
 238899737               58.792650919               0                            ;
 238899740                58.76312336               0                            ;
 238899753               188.92388451               0                            ;
 238899757               160.38713911               0                            ;
 238899760               150.72178478               0                            ;
 238899768               58.471128609               0                            ;
 238899775               85.374015748               0                            ;
 238899805               13.973097113               0                            ;
 238899809               15.702099738               0                            ;
 238899819               16.003937008               0                            ;
 238899839               231.81102362               0                            ;
 238899854               243.15616798               0                            ;
 238899857               211.51902887               0                            ;
 238899873               70.853018373               0                            ;
 238899876               69.209317585               0                            ;
 238899888               283.15944882               0                            ;
 238899903               269.27493438               0                            ;
 238899918               232.74278215               0                            ;
 238899920               228.54986877               0                            ;
 238899932               214.68832021               0                            ;
 238899935                212.3687664               0                            ;
 238899938               206.64041995               0                            ;
 238899981                          0               0                            ;
 238899990               2.7034120735               0                            ;
 238899993               1.0465879265               0                            ;
 238900001                1.499343832               0                            ;
 238900005                1.906167979               0                            ;
 238900008               1.8700787402               0                            ;
 238900013                          0               0                            ;
 238900027                          0               0                            ;
 238900035                          0               0                            ;
 238900037               1.2335958005               0                            ;
 238900049               202.66732283               0                            ;
 238900070               142.91666667               0                            ;
 238900072               141.70603675               0                            ;
 238900089               166.84383202               0                            ;
 238900095                150.5675853               0                            ;
 238900105               261.90616798               0                            ;
 238900112               233.77624672               0                            ;
 238900126               170.02296588               0                            ;
 238900128               177.15551181               0                            ;
 238900136               172.72965879               0                            ;
 238900141               198.22506562               0                            ;
 238900146               103.98950131               0                            ;
 238900155                97.51312336               0                            ;
 238900161               85.134514436               0                            ;
 238900177               71.486220472               0                            ;
 238900181               73.152887139               0                            ;
 238900185               75.987532808               0                            ;
 238900195               82.562335958               0                            ;
 238900204               92.103018373               0                            ;
 238900206               104.65551181               0                            ;
 238900208               105.00984252               0                            ;
 238900211               113.33005249               0                            ;
 238900229               225.91863517               0                            ;
 238900240               221.17125984               0                            ;
 238900252               82.473753281               0                            ;
 238900255               91.630577428               0                            ;
 238900268               174.34383202               0                            ;
 238900284               177.41141732               0                            ;
 238900285               176.24343832               0                            ;
 238900294               118.41863517               0                            ;
 238900310               161.90616798               0                            ;
 238900397               21.807742782               0                            ;
 238900404               28.513779528               0                            ;
 238900454               4.6587926509               0                            ;
 238900461               16.286089239               0                            ;
 238900544               24.032152231               0                            ;
 238900842               197.91666667               0                            ;
 238900844               193.26771654               0                            ;
 238900851               45.669291339               0                            ;
 238900861               46.207349081               0                            ;
 238900865               52.414698163               0                            ;
 238900873               57.293307087               0                            ;
 238900998               308.36614173               0                            ;
 238901003               306.67322835               0                            ;
 238901009                309.5144357               0                            ;
 238901507               308.69094488               0                            ;
 238901514                308.7828084               0                            ;
 238901522               79.983595801               0                            ;
 238901529               73.897637795               0                            ;
 238901547               92.011154856               0                            ;
 238901560               61.906167979               0                            ;
 238901578               164.62270341               0                            ;
 238901582               168.72375328               0                            ;
 238901636               296.22375328               0                            ;
 238901665               126.05971129               0                            ;
 238901667               126.10892388               0                            ;
 238901680                72.18832021               0                            ;
 238901713               15.885826772               0                            ;
 238901721               15.885826772               0                            ;
 238901802               58.188976378               0                            ;
 238901838               56.233595801               0                            ;
 238901839               59.301181102               0                            ;
 238901841               60.574146982               0                            ;
 238901848               62.244094488               0                            ;
 238901863               57.280183727               0                            ;
 238901866               67.398293963               0                            ;
 238901873               80.265748031               0                            ;
 238902091               150.56430446               0                            ;
 238902094                186.7519685               0                            ;
 238902098                225.5183727               0                            ;
 238902145               151.48950131               0                            ;
 238902204               108.32677165               0                            ;
 238902206               126.96850394               0                            ;
 238902210               159.83595801               0                            ;
 238902241               107.81167979               0                            ;
 238902249               109.62598425               0                            ;
 238902256               129.72440945               0                            ;
 238902275               165.83333333               0                            ;
 238902324                133.1167979               0                            ;
 238902413               67.299868766               0                            ;
 238902581               28.681102362               0                            ;
 238902740               117.15551181               0                            ;
 238902746               118.42847769               0                            ;
 238902761               15.410104987               0                            ;
 238902786               15.977690289               0                            ;
 238902797               269.91469816               0                            ;
 238902804                251.1843832               0                            ;
 238902931               36.637139108               0                            ;
 238902954               26.197506562               0                            ;
 238903100               82.247375328               0                            ;
 238903105               83.838582677               0                            ;
 238903120               28.031496063               0                            ;
 238903133               29.294619423               0                            ;
 238903145               29.288057743               0                            ;
 238903243               337.86089239               0                            ;
 238903247               364.13057743               0                            ;
 238903262                338.2152231               0                            ;
 238903279               375.82677165               0                            ;
 238903288               359.22244094               0                            ;
 238903291               349.24868766               0                            ;
 238903318               361.75853018               0                            ;
 238903459               59.130577428               0                            ;
 238903547               15.334645669               0                            ;
 238903555               7.1030183727               0                            ;
 238903564               6.6502624672               0                            ;
 238903747               160.99737533               0                            ;
 238903750               152.20472441               0                            ;
 238903753               137.71325459               0                            ;
 238903763               145.82349081               0                            ;
 238903766               157.27362205               0                            ;
 238903769               148.37270341               0                            ;
 238903794               127.04724409               0                            ;
 238903800               130.41666667               0                            ;
 238903808               132.50984252               0                            ;
 238903820               163.64501312               0                            ;
 238903824               162.10301837               0                            ;
 238904198               395.71194226               0                            ;
 238904229               213.54002625               0                            ;
 238904275                16.24015748               0                            ;
 238904285               236.03018373               0                            ;
 238904289               238.92060367               0                            ;
 238904298               264.60629921               0                            ;
 238904301               261.54855643               0                            ;
 238904314               242.69356955               0                            ;
 238904392               370.16404199               0                            ;
 238904406               370.65288714               0                            ;
 238904560               187.57874016               0                            ;
 238904569               198.50721785               0                            ;
 238904584               39.343832021               0                            ;
 238904599               39.347112861               0                            ;
 238904646               13.733595801               0                            ;
 238904663               21.896325459               0                            ;
 238904701               25.226377953               0                            ;
 238904804               17.454068241               0                            ;
 238904808               16.194225722               0                            ;
 238904813               25.462598425               0                            ;
 238904881               207.32611549               0                            ;
 238904883               213.49409449               0                            ;
 238904886               221.24015748               0                            ;
 238904896               210.47900262               0                            ;
 238904903               223.08070866               0                            ;
 238904906               232.39829396               0                            ;
 238904987               220.28215223               0                            ;
 238905034               39.002624672               0                            ;
 238905040               38.795931759               0                            ;
 238905060               29.140419948               0                            ;
 238905068                215.6988189               0                            ;
 238905088               184.02559055               0                            ;
 238905100                162.5984252               0                            ;
 238905102               162.10629921               0                            ;
 238905109               168.16272966               0                            ;
 238905147               1.1056430446               0                            ;
 238905285               258.03149606               0                            ;
 238905298               266.07611549               0                            ;
 238905306               265.89566929               0                            ;
 238905470               114.84251969               0                            ;
 238905542               118.32020997               0                            ;
 238905569               119.69488189               0                            ;
 238905661               127.75590551               0                            ;
 238905727               49.186351706               0                            ;
 238905732               49.858923885               0                            ;
 238905739               118.36942257               0                            ;
 238905756               107.69685039               0                            ;
 238905773               111.01706037               0                            ;
 238905780               106.19094488               0                            ;
 238905808               239.54068241               0                            ;
 238905818               210.92519685               0                            ;
 238905830               78.034776903               0                            ;
 238905852               75.341207349               0                            ;
 238905870               77.362204724               0                            ;
 238905876               76.837270341               0                            ;
 238905892               83.989501312               0                            ;
 238905895               84.196194226               0                            ;
 238905900               84.235564304               0                            ;
 238906017               13.835301837               0                            ;
 238906333                6.282808399               0                            ;
 238906343               1.8733595801               0                            ;
 238906351               39.045275591               0                            ;
 238906354               39.045275591               0                            ;
 238906423               15.958005249               0                            ;
 238906426               15.961286089               0                            ;
 238906437                          0               0                            ;
 238906460               15.994094488               0                            ;
 238906713               370.29527559               0                            ;
 238906809               29.104330709               0                            ;
 238906840                15.92847769               0                            ;
 238906913                15.95144357               0                            ;
 238906936               15.872703412               0                            ;
 238906954                34.07808399               0                            ;
 238906959               38.103674541               0                            ;
 238906979               64.274934383               0                            ;
 238906989               86.492782152               0                            ;
 238907005               71.971784777               0                            ;
 238907012               72.106299213               0                            ;
 238907147               195.80380577               0                            ;
 238907185               239.74737533               0                            ;
 238907225               176.61089239               0                            ;
 238907233               170.02624672               0                            ;
 238907243               233.67454068               0                            ;
 238907251                          0               0                            ;
 238907385              0.54133858268               0                            ;
 238907478               214.71128609               0                            ;
 238907490               274.90813648               0                            ;
 238907541               201.54855643               0                            ;
 238907600               248.01509186               0                            ;
 238907603               254.15026247               0                            ;
 238907607               224.27493438               0                            ;
 238907620               193.25459318               0                            ;
 238907639               267.91010499               0                            ;
 238907698               138.62532808               0                            ;
 238907710               210.72834646               0                            ;
 238907726               294.82939633               0                            ;
 238907728               300.47572178               0                            ;
 238907755               91.791338583               0                            ;
 238907806               223.43832021               0                            ;
 238907820               247.78215223               0                            ;
 238907858               257.38188976               0                            ;
 238907870               109.40944882               0                            ;
 238907874               107.19488189               0                            ;
 238907887               258.82874016               0                            ;
 238907889               258.17585302               0                            ;
 238907956               47.391732283               0                            ;
 238907966               28.513779528               0                            ;
 238907975               33.366141732               0                            ;
 238907979                31.23687664               0                            ;
 238907988               30.177165354               0                            ;
 238908012               37.404855643               0                            ;
 238908029               204.20931759               0                            ;
 238908034               206.49278215               0                            ;
 238908091               36.177821522               0                            ;
 238908142               80.022965879               0                            ;
 238908145                79.38976378               0                            ;
 238908289               395.33464567               0                            ;
 238908315               358.62860892               0                            ;
 238908648               58.917322835               0                            ;
 238908731               29.294619423               0                            ;
 238908753                121.1515748               0                            ;
 238908755               115.95144357               0                            ;
 238908840               349.93110236               0                            ;
 238908962               82.483595801               0                            ;
 238908968               75.462598425               0                            ;
 238909071               112.92650919               0                            ;
 238909181               207.16207349               0                            ;
 238909227               29.183070866               0                            ;
 238909245               15.183727034               0                            ;
 238909276               12.326115486               0                            ;
 238909309               335.98753281               0                            ;
 238909366               7.8674540682               0                            ;
 238909374               9.0419947507               0                            ;
 238909441               59.931102362               0                            ;
 238909445               83.261154856               0                            ;
 238909460               39.117454068               0                            ;
 238909463               31.807742782               0                            ;
 238909500               375.51181102               0                            ;
 238909510               38.930446194               0                            ;
 238909514               31.646981627               0                            ;
 238909675                          0               0                            ;
 238909714               4.4652230971               0                            ;
 238909742                          0               0                            ;
 238909778               7.3097112861               0                            ;
 238909914               26.335301837               0                            ;
 238909937               26.935695538               0                            ;
 238910073               97.316272966               0                            ;
 238910156               86.305774278               0                            ;
 238910207                1.532152231               0                            ;
 238910243               45.016404199               0                            ;
 238910419               71.712598425               0                            ;
 238910430               110.06889764               0                            ;
 238910491               15.380577428               0                            ;
 238910496               17.536089239               0                            ;
 238910846               180.94816273               0                            ;
 238910852               187.20800525               0                            ;
 238910856               193.84514436               0                            ;
 238910863               128.75328084               0                            ;
 238910867                129.3996063               0                            ;
 238910921               256.22375328               0                            ;
 238910927               275.95472441               0                            ;
 238911031               118.98293963               0                            ;
 238911036               115.57742782               0                            ;
 238911057               53.106955381               0                            ;
 238911079               130.11154856               0                            ;
 238911088               127.89370079               0                            ;
 238911091               125.62992126               0                            ;
 238911186               221.48950131               0                            ;
 238911199               209.78346457               0                            ;
 238911216               217.37860892               0                            ;
 238911286               205.82020997               0                            ;
 238911291               210.24278215               0                            ;
 238911298               204.42913386               0                            ;
 238911304               206.89304462               0                            ;
 238911309                207.9855643               0                            ;
 238911317               203.88451444               0                            ;
 238911354               193.35958005               0                            ;
 238911371               266.29593176               0                            ;