[TITLE]

[JUNCTIONS]
;ID                      Elevation       Demand Pattern                 
 41779203                1180.6299213    46.640700696                            ;
 41779208                1179.9048556    46.640700696                            ;
 41779209                1180.1673228    46.640700696                            ;
 255737867                1191.187664    8.5030555558                            ;
 41533452                 1177.664042    14.693538889                            ;
 255737869               1189.5439633    8.5030555558                            ;
 41730069                1161.9028871    21.774636112                            ;
 41533468                1181.3615486    44.595361807                            ;
 5641650206               1144.937664     31.79777014                            ;
 41533484                1181.7552493    44.595361807                            ;
 41533490                1182.2375328    44.595361807                            ;
 8660516917               1190.921916    18.864695139                            ;
 41533500                1183.0380577    44.595361807                            ;
 41533501                1183.3464567    44.595361807                            ;
 41533524                 1178.339895    40.525297918                            ;
 2318614612              1151.7650919    16.730374306                            ;
 8660516951              1191.5223097    18.864695139                            ;
 41533528                1177.9363517    40.525297918                            ;
 41533533                1164.7604987    12.567916667                            ;
 255819874               1162.3523622    18.543194445                            ;
 41533538                1164.4324147    12.567916667                            ;
 41533540                 1164.917979    12.567916667                            ;
 3730407527              1193.0708661    18.864695139                            ;
 41533544                1164.9507874    12.567916667                            ;
 41533545                  1163.32021    29.618686806                            ;
 41746538                1180.0131234    48.141939585                            ;
 41746539                1180.0164042    48.141939585                            ;
 8660516973              1192.4540682    18.864695139                            ;
 8660516974              1190.3215223    18.864695139                            ;
 41746542                1182.3818898    48.141939585                            ;
 41746544                1184.0879265    48.141939585                            ;
 41533550                1180.8661417    14.693538889                            ;
 41746546                1185.4265092    48.141939585                            ;
 41533555                1181.4107612    44.595361807                            ;
 41746551                1185.9087927    48.141939585                            ;
 41533561                1187.4835958    27.514186806                            ;
 41730173                 1171.476378    18.360780556                            ;
 41533571                1187.9986877    27.514186806                            ;
 41730183                1177.1850394     23.18918889                            ;
 42254473                1177.2145669    18.429388889                            ;
 41730187                1179.6489501     23.18918889                            ;
 42598539                 1194.507874    17.173202778                            ;
 41533580                 1185.082021    27.514186806                            ;
 41730192                1194.1469816    26.339360417                            ;
 41533587                1168.9468504    21.774636112                            ;
 42254483                1181.0072178    22.540343751                            ;
 41746580                1167.9790026    18.543194445                            ;
 41730198                1198.8746719    26.339360417                            ;
 41533590                1168.5006562    21.774636112                            ;
 41746582                1172.4212598    18.543194445                            ;
 41533597                1167.7198163    21.774636112                            ;
 41730206                1195.4888451    22.056286806                            ;
 41730207                1194.9409449    22.056286806                            ;
 41730210                1195.9448819    22.056286806                            ;
 41730218                1189.4717848    22.408202778                            ;
 41730223                1189.5570866    22.408202778                            ;
 41730226                1191.6240157    22.408202778                            ;
 41730230                1193.9895013    26.339360417                            ;
 339017924               1179.9442257    17.451727778                            ;
 1370325190              1223.5104987    30.575972223                            ;
 1370325192              1234.6292651    23.024956945                            ;
 41730251                1172.0964567    18.360780556                            ;
 41730258                1183.3497375    21.030555556                            ;
 42467549                1188.8549869    44.595361807                            ;
 41779434                1183.4612861    32.853197918                            ;
 41779444                1186.8372703    20.294545834                            ;
 41779447                 1186.066273    20.294545834                            ;
 41812217                1158.6515748     27.44118889                            ;
 41812218                 1157.601706     27.44118889                            ;
 41926908                1183.0380577    61.572137502                            ;
 41812221                1157.4671916    15.524529862                            ;
 41779453                1188.9895013    20.294545834                            ;
 418955519               1155.4035433    37.690498612                            ;
 41926915                1191.4730971    14.920759028                            ;
 41812231                1156.4927822    16.730374306                            ;
 8269005064              1170.7644357    20.060719445                            ;
 41926922                1190.6496063    14.920759028                            ;
 41812235                1155.1541995    17.606770834                            ;
 8269005069              1169.3635171    20.060719445                            ;
 41812238                1154.1141732    17.606770834                            ;
 41812240                1153.1660105    17.606770834                            ;
 8269005072              1167.0734908    20.060719445                            ;
 41812245                1152.3326772    17.606770834                            ;
 41517333                1184.1535433    32.853197918                            ;
 41926935                1188.3169291    14.920759028                            ;
 41812248                1152.2604987    17.606770834                            ;
 41517336                1199.3864829    20.294545834                            ;
 41517338                 1208.093832    20.294545834                            ;
 41812251                 1151.558399    17.606770834                            ;
 41812252                1150.5314961     31.79777014                            ;
 41517341                1212.8018373    20.294545834                            ;
 41744452                1184.9114173    22.295940278                            ;
 41744453                 1186.660105    22.295940278                            ;
 41812263                1175.8825459    26.222894445                            ;
 41812265                1178.4481627    26.222894445                            ;
 41812270                1180.3116798    22.324305556                            ;
 41744457                1183.0085302    22.150839584                            ;
 41926961                1190.5971129    14.920759028                            ;
 41812274                1180.1410761    22.324305556                            ;
 41926963                1190.1148294    14.920759028                            ;
 41812277                1182.7919948    22.324305556                            ;
 41632054                1189.4291339    20.825625695                            ;
 41632057                1187.7690289     20.89475139                            ;
 41632059                 1187.171916     20.89475139                            ;
 41812285                1184.5603675    15.357718056                            ;
 41632063                1186.5551181     20.89475139                            ;
 41812289                1187.0538058    18.864695139                            ;
 41582913                1173.0544619    20.505709723                            ;
 41632068                1183.8877953     20.89475139                            ;
 41812293                1187.4245407    18.864695139                            ;
 41582918                1172.7559055    20.505709723                            ;
 41582920                 1173.156168    19.253327778                            ;
 41582921                1174.6850394    19.253327778                            ;
 41632074                1182.4311024    41.434538196                            ;
 41582923                1175.1574803    19.253327778                            ;
 41632076                1181.3549869    46.640700696                            ;
 41582925                1175.4625984    19.253327778                            ;
 41812302                1189.3635171    18.864695139                            ;
 41582927                1173.2874016    19.253327778                            ;
 41812304                1190.9711286    18.864695139                            ;
 41632082                1179.6128609    46.640700696                            ;
 41812307                1191.2664042    18.864695139                            ;
 41812309                1191.8011811    18.864695139                            ;
 314442070               1197.2276903    14.920759028                            ;
 41632088                1178.6646982    27.556713195                            ;
 41501018                1207.3064304    20.294545834                            ;
 41632092                1179.9475066    27.556713195                            ;
 41501021                1203.1627297    20.294545834                            ;
 41632094                1180.4954068    27.556713195                            ;
 41501023                     1201.25    20.294545834                            ;
 41632096                1181.8372703    44.595361807                            ;
 41812321                 1194.671916    27.864065973                            ;
 41501025                1196.9356955    20.294545834                            ;
 41812324                1195.1345144    27.864065973                            ;
 41582945                1223.4973753    40.645254862                            ;
 41812327                1196.6207349    27.864065973                            ;
 41976169                 1182.417979    20.294545834                            ;
 41812330                1197.1784777    27.864065973                            ;
 41976171                1183.5695538    20.294545834                            ;
 42516847                1195.0524934    22.056286806                            ;
 41501039                1228.4383202    39.767361112                            ;
 41615729                1164.8851706    20.505709723                            ;
 42516850                1196.5879265    22.056286806                            ;
 41501042                1211.9914698    39.767361112                            ;
 3841311092              1177.6345144     23.18918889                            ;
 41615732                1166.5715223    20.505709723                            ;
 42516856                1173.3661417    18.360780556                            ;
 3841311101               1176.597769     23.18918889                            ;
 3841311104              1175.8530184    18.360780556                            ;
 3841311106              1174.8228346     23.18918889                            ;
 42516866                 1189.015748    22.408202778                            ;
 3983409544              1177.0636483    26.222894445                            ;
 3983409546              1175.6069554     23.18918889                            ;
 42238349                1200.7972441    22.133406251                            ;
 2941419917              1165.6135171    12.567916667                            ;
 3983409553              1177.3458005    18.102116667                            ;
 41238930                1182.5032808    33.600578473                            ;
 41238931                1184.7769029    33.600578473                            ;
 42516886                1171.2992126    18.360780556                            ;
 4347871641              1150.8005249     31.79777014                            ;
 3841311130              1174.4389764    18.360780556                            ;
 41222556                1177.1325459    27.514186806                            ;
 42303912                1218.6811024    11.775463195                            ;
 41632171                1176.3254593    18.360780556                            ;
 41632176                 1175.019685     23.18918889                            ;
 41632178                1177.1686352     23.18918889                            ;
 41632179                1177.7526247     23.18918889                            ;
 41894325                1176.7913386    14.693538889                            ;
 41632184                1192.4639108    22.056286806                            ;
 41632187                1192.5885827    22.056286806                            ;
 41632188                1193.0905512    22.056286806                            ;
 41632190                1196.0958005    22.056286806                            ;
 41632192                1197.0308399    22.056286806                            ;
 255738306               1185.1345144    1.4181180556                            ;
 320061891               1225.5577428    23.037698612                            ;
 41632197                1173.2545932    18.360780556                            ;
 41632198                1169.9114173    18.360780556                            ;
 41632201                1176.4796588    18.360780556                            ;
 41632204                1189.3077428    22.408202778                            ;
 41632205                1189.0059055    22.408202778                            ;
 8937701837              1179.5439633    27.556713195                            ;
 8937701839              1179.5275591    27.556713195                            ;
 8937701840              1179.9146982    27.556713195                            ;
 41894348                1179.7506562    14.693538889                            ;
 41632211                1193.4514436    26.339360417                            ;
 8937701845              1183.2972441    27.556713195                            ;
 41632214                1180.7677165    17.451727778                            ;
 41632217                1182.4015748    21.030555556                            ;
 41632218                1182.4934383    21.030555556                            ;
 41894369                1177.9724409    14.693538889                            ;
 41894371                 1179.078084    14.693538889                            ;
 8937701876               1184.691601    27.556713195                            ;
 8937701877              1184.5308399    27.556713195                            ;
 8937701878              1184.7309711    27.556713195                            ;
 8937701884              1184.3077428    44.595361807                            ;
 8937701889              1185.8825459    27.556713195                            ;
 5046026761               1185.164042    22.150839584                            ;
 255722007               1227.3884514    44.595361807                            ;
 255820323               1213.8057743    39.767361112                            ;
 9095414328              1158.3005249    16.730374306                            ;
 3931750969              1180.6430446    14.693538889                            ;
 41337413                1178.6646982    32.505555557                            ;
 5697454668              1158.5892388    37.690498612                            ;
 5697454669              1159.2782152    37.690498612                            ;
 42517069                 1227.726378    23.037698612                            ;
 5697454674               1159.078084    37.690498612                            ;
 42009170                1180.7217848    22.540343751                            ;
 5697454679              1158.6745407    37.690498612                            ;
 41599580                1175.7053806    19.253327778                            ;
 41599582                1175.9744094    19.253327778                            ;
 255722107               1231.3910761    44.595361807                            ;
 42517119                1202.7526247    20.294545834                            ;
 255722118                1225.656168    44.595361807                            ;
 42271374                1186.7650919     20.89475139                            ;
 255722128               1238.9107612    44.595361807                            ;
 42304155                1172.0767717    27.888518751                            ;
 41714336                1168.0019685    20.060719445                            ;
 42271393                1188.4875328    17.173202778                            ;
 41714339                1167.3786089    18.543194445                            ;
 41763493                1177.4606299    18.246086112                            ;
 41714341                1174.2158793    20.060719445                            ;
 255722163               1242.5524934    44.595361807                            ;
 41714356                1171.0925197    80.813078475                            ;
 41714362                1176.6830709    50.744704863                            ;
 42271421                1191.5321522    18.864695139                            ;
 41714366                1176.5715223    50.744704863                            ;
 41714369                1177.3490814    50.744704863                            ;
 42304195                1173.5203412    21.774636112                            ;
 42271431                1183.6811024     20.89475139                            ;
 41714377                1183.4350394    48.141939585                            ;
 41714380                1185.3018373    19.357664584                            ;
 41714382                1185.7874016    19.357664584                            ;
 3981260854              1184.5341207    22.194586112                            ;
 42304211                1175.4855643    18.360780556                            ;
 41714388                1189.1437008    19.357664584                            ;
 42304215                1174.5866142    18.360780556                            ;
 41714393                1190.7874016    33.527022918                            ;
 41714394                1190.5839895    33.527022918                            ;
 41714396                 1190.574147    33.527022918                            ;
 41894623                 1168.074147    18.360780556                            ;
 42304226                1175.0918635    18.360780556                            ;
 42304230                1175.9153543    18.360780556                            ;
 41714407                1194.5833333    33.527022918                            ;
 337822444               1167.1062992    48.141939585                            ;
 2376762094              1195.8923885     24.61247014                            ;
 2376762097              1196.6076115     24.61247014                            ;
 2376762100              1198.8877953     24.61247014                            ;
 42271477                1187.7526247    23.193813195                            ;
 2376762102              1195.2526247     24.61247014                            ;
 42304253                1175.5249344    18.102116667                            ;
 3983475457              1166.4009186    20.396481251                            ;
 42271490                1188.4973753    23.193813195                            ;
 4321248003              1189.7244094    61.572137502                            ;
 42304265                1176.6043307    18.102116667                            ;
 42271499                1189.1141732    23.193813195                            ;
 4321248019              1187.8346457    27.514186806                            ;
 4321248025              1187.7001312    27.514186806                            ;
 2454749988              1217.9232283    22.133406251                            ;
 2454749989              1216.5288714    22.133406251                            ;
 2454749990              1217.3458005    22.133406251                            ;
 2454749991              1217.5098425    22.133406251                            ;
 42271524                1187.7821522     20.89475139                            ;
 42353451                1193.2545932    15.788461806                            ;
 42271539                1187.5164042    23.193813195                            ;
 41763640                1179.5242782    32.853197918                            ;
 41763644                1183.4580052    32.853197918                            ;
 41763648                1190.1213911    32.853197918                            ;
 42271562                1182.6968504    20.825625695                            ;
 42271577                1190.6102362    17.169397917                            ;
 42304353                1183.5728346    27.556713195                            ;
 41501538                1187.9068241    27.514186806                            ;
 41501539                1187.1948819    27.514186806                            ;
 42271588                1191.6896325    17.169397917                            ;
 41501541                1187.0964567    27.514186806                            ;
 41501544                1185.9809711    27.514186806                            ;
 41501547                1185.4330709    27.514186806                            ;
 321307502               1182.7624672    27.514186806                            ;
 42304368                1176.8864829    33.977777779                            ;
 321307505               1190.2591864    27.514186806                            ;
 42271601                1189.6817585    22.408202778                            ;
 41501553                1184.3339895    27.514186806                            ;
 255738740               1188.1135171    20.825625695                            ;
 3983295350              1175.2001312     23.18918889                            ;
 41501559                1184.5570866    16.320277778                            ;
 41698169                1177.9560367    48.141939585                            ;
 42304379                1178.5400262    19.618055556                            ;
 41501567                1186.8897638    16.320277778                            ;
 321307521               1188.3661417    27.514186806                            ;
 321307525               1182.7099738    27.514186806                            ;
 41501573                1187.0308399    16.320277778                            ;
 41501575                  1188.32021    22.295940278                            ;
 321307528               1189.9015748    27.514186806                            ;
 41501582                1187.9429134    22.295940278                            ;
 42304401                1178.9304462    19.618055556                            ;
 41501587                1188.1627297    22.295940278                            ;
 41501589                1188.3103675    23.999875695                            ;
 41501591                1189.2749344    23.999875695                            ;
 41894809                1188.4776903     20.89475139                            ;
 41501594                1190.7513123    23.999875695                            ;
 41501595                1191.2893701    21.380665278                            ;
 321307546               1188.4514436    27.514186806                            ;
 42304413                1185.4954068    61.572137502                            ;
 41894811                1190.9284777     20.89475139                            ;
 41501599                1193.8156168    21.380665278                            ;
 41501600                1193.1135171    21.380665278                            ;
 41845663                1215.4199475    11.775463195                            ;
 3940238241              1185.9350394    61.572137502                            ;
 42271648                1185.1541995    20.825625695                            ;
 42304420                1185.4429134    61.572137502                            ;
 3940238243              1191.0137795    44.595361807                            ;
 3940238250              1183.6286089    61.572137502                            ;
 939787183                1217.191601    53.519765279                            ;
 42304435                1180.8661417    19.618055556                            ;
 42304440                 1182.582021    27.514186806                            ;
 42304443                1183.1102362    27.514186806                            ;
 42304451                1181.5059055    27.514186806                            ;
 42304472                 1171.148294    18.543194445                            ;
 41583578                 1183.339895    22.133406251                            ;
 41583581                1194.6194226    22.133406251                            ;
 41583582                1196.7585302    22.133406251                            ;
 41583584                1198.4612861    22.133406251                            ;
 317260785               1187.7723097    20.825625695                            ;
 41894899                1232.1981627    26.644381251                            ;
 41780227                1176.2434383    26.222894445                            ;
 41780229                1176.5059055    26.222894445                            ;
 4716102663              1175.6135171    20.060719445                            ;
 401884184               1157.6279528    16.730374306                            ;
 41894956                1186.4730971    35.692331251                            ;
 41763889                1185.8136483    23.246809028                            ;
 8813118513              1165.5282152    12.567916667                            ;
 41714748                1138.1922572    18.514375001                            ;
 255820882               1169.7998688    48.141939585                            ;
 255820883               1170.0262467    48.141939585                            ;
 255820886               1170.0492126    48.141939585                            ;
 255820887               1168.6220472    48.141939585                            ;
 255820912               1170.2624672    48.141939585                            ;
 6387319923               1215.839895    52.770959724                            ;
 41567350                1173.1824147    23.554529167                            ;
 6387319926              1215.8923885    52.770959724                            ;
 6387319927              1215.8661417    52.770959724                            ;
 41567356                1174.3175853    23.554529167                            ;
 41567359                1175.3313648    23.554529167                            ;
 6294832281              1221.4041995    26.644381251                            ;
 6294832282              1225.0557743    26.644381251                            ;
 41190577                1195.9481627    52.770959724                            ;
 41190578                 1194.734252    52.770959724                            ;
 41190580                1194.5374016    52.770959724                            ;
 41682116                1183.7171916    61.572137502                            ;
 41190597                 1166.023622    32.505555557                            ;
 41731270                1187.2604987    23.193813195                            ;
 41190600                1167.7755906    32.505555557                            ;
 41682121                1184.0124672    61.572137502                            ;
 41698505                1181.5944882    41.434538196                            ;
 41190606                1172.0964567    32.505555557                            ;
 41190607                1170.8628609    32.505555557                            ;
 41501902                1175.7152231     23.18918889                            ;
 41501904                1175.8136483     23.18918889                            ;
 41190610                1170.4330709    32.505555557                            ;
 41698515                1181.1515748     20.89475139                            ;
 41698511                1181.6010499    41.434538196                            ;